data/R/Loads.dss
New Load.1 bus1=3110554.2 kV=0.23094010767585033 Vminpu=0.7 Vmaxpu=1.3 model=1 kW=0.0 kvar=0.0 Phases=1
New Load.2 bus1=3107897.2 kV=0.23094010767585033 Vminpu=0.7 Vmaxpu=1.3 model=1 kW=0.0 kvar=0.0 Phases=1
New Load.3 bus1=3110883.2 kV=0.23094010767585033 Vminpu=0.7 Vmaxpu=1.3 model=1 kW=0.0 kvar=0.0 Phases=1
New Load.4 bus1=3110886.1 kV=0.23094010767585033 Vminpu=0.7 Vmaxpu=1.3 model=1 kW=0.0 kvar=0.0 Phases=1
New Load.5 bus1=3106350.2 kV=0.23094010767585033 Vminpu=0.7 Vmaxpu=1.3 model=1 kW=0.0 kvar=0.0 Phases=1
New Load.6 bus1=3110897.1 kV=0.23094010767585033 Vminpu=0.7 Vmaxpu=1.3 model=1 kW=0.0 kvar=0.0 Phases=1
New Load.7 bus1=3110916.2 kV=0.23094010767585033 Vminpu=0.7 Vmaxpu=1.3 model=1 kW=0.0 kvar=0.0 Phases=1
New Load.8 bus1=3108134.2 kV=0.23094010767585033 Vminpu=0.7 Vmaxpu=1.3 model=1 kW=0.0 kvar=0.0 Phases=1
New Load.9 bus1=3108304.1 kV=0.23094010767585033 Vminpu=0.7 Vmaxpu=1.3 model=1 kW=0.0 kvar=0.0 Phases=1
New Load.10 bus1=3111026.2 kV=0.23094010767585033 Vminpu=0.7 Vmaxpu=1.3 model=1 kW=0.0 kvar=0.0 Phases=1
New Load.11 bus1=3111035.3 kV=0.23094010767585033 Vminpu=0.7 Vmaxpu=1.3 model=1 kW=0.0 kvar=0.0 Phases=1
New Load.12 bus1=3111113.1 kV=0.23094010767585033 Vminpu=0.7 Vmaxpu=1.3 model=1 kW=0.0 kvar=0.0 Phases=1
New Load.13 bus1=3111121.2 kV=0.23094010767585033 Vminpu=0.7 Vmaxpu=1.3 model=1 kW=0.0 kvar=0.0 Phases=1
New Load.14 bus1=3111130.1 kV=0.23094010767585033 Vminpu=0.7 Vmaxpu=1.3 model=1 kW=0.0 kvar=0.0 Phases=1
New Load.15 bus1=3108382.2 kV=0.23094010767585033 Vminpu=0.7 Vmaxpu=1.3 model=1 kW=0.0 kvar=0.0 Phases=1
New Load.16 bus1=3110554.2 kV=0.23094010767585033 Vminpu=0.7 Vmaxpu=1.3 model=1 kW=1.8411708430941052 kvar=0.3738656853970692 Phases=1
New Load.17 bus1=3107394.1 kV=0.23094010767585033 Vminpu=0.7 Vmaxpu=1.3 model=1 kW=2.148032650276456 kvar=0.43617663296324743 Phases=1
New Load.18 bus1=3110858.1 kV=0.23094010767585033 Vminpu=0.7 Vmaxpu=1.3 model=1 kW=1.257838796640816 kvar=0.25541506133937164 Phases=1
New Load.19 bus1=3110859.1 kV=0.23094010767585033 Vminpu=0.7 Vmaxpu=1.3 model=1 kW=0.7979389294763106 kvar=0.16202841028719076 Phases=1
New Load.20 bus1=3106493.2 kV=0.23094010767585033 Vminpu=0.7 Vmaxpu=1.3 model=1 kW=2.9547110963570566 kvar=0.599979677786694 Phases=1
New Load.21 bus1=3104820.1 kV=0.23094010767585033 Vminpu=0.7 Vmaxpu=1.3 model=1 kW=1.3488171979702033 kvar=0.27388901365993995 Phases=1
New Load.22 bus1=3104843.1 kV=0.23094010767585033 Vminpu=0.7 Vmaxpu=1.3 model=1 kW=1.859631706726032 kvar=0.37761432364031533 Phases=1
New Load.23 bus1=3107897.2 kV=0.23094010767585033 Vminpu=0.7 Vmaxpu=1.3 model=1 kW=1.8429383607354939 kvar=0.37422459516197665 Phases=1
New Load.24 bus1=3106366.2 kV=0.23094010767585033 Vminpu=0.7 Vmaxpu=1.3 model=1 kW=0.5266730521272261 kvar=0.1069455245569776 Phases=1
New Load.25 bus1=3106566.1 kV=0.23094010767585033 Vminpu=0.7 Vmaxpu=1.3 model=1 kW=0.19197274259329009 kvar=0.038981727989229935 Phases=1
New Load.26 bus1=3110860.2 kV=0.23094010767585033 Vminpu=0.7 Vmaxpu=1.3 model=1 kW=2.7393676017172055 kvar=0.55625231618888 Phases=1
New Load.27 bus1=3110883.2 kV=0.23094010767585033 Vminpu=0.7 Vmaxpu=1.3 model=1 kW=2.3979899657270205 kvar=0.48693263065431036 Phases=1
New Load.28 bus1=3104871.2 kV=0.23094010767585033 Vminpu=0.7 Vmaxpu=1.3 model=1 kW=0.7837496331442169 kvar=0.15914715077865682 Phases=1
New Load.29 bus1=3110884.1 kV=0.23094010767585033 Vminpu=0.7 Vmaxpu=1.3 model=1 kW=1.9881698977348115 kvar=0.40371511654687586 Phases=1
New Load.30 bus1=3110885.2 kV=0.23094010767585033 Vminpu=0.7 Vmaxpu=1.3 model=1 kW=1.6284297085146704 kvar=0.33066675554761077 Phases=1
New Load.31 bus1=3110886.1 kV=0.23094010767585033 Vminpu=0.7 Vmaxpu=1.3 model=1 kW=4.105712669697883 kvar=0.8337005156569137 Phases=1
New Load.32 bus1=3107211.2 kV=0.23094010767585033 Vminpu=0.7 Vmaxpu=1.3 model=1 kW=2.095006961835255 kvar=0.42540930768918117 Phases=1
New Load.33 bus1=3104856.1 kV=0.23094010767585033 Vminpu=0.7 Vmaxpu=1.3 model=1 kW=0.9039412307575 kvar=0.18355309560947125 Phases=1
New Load.34 bus1=3104810.1 kV=0.23094010767585033 Vminpu=0.7 Vmaxpu=1.3 model=1 kW=2.717666474808871 kvar=0.5518457144246249 Phases=1
New Load.35 bus1=3106719.1 kV=0.23094010767585033 Vminpu=0.7 Vmaxpu=1.3 model=1 kW=0.48410520293083137 kvar=0.09830175411308742 Phases=1
New Load.36 bus1=3110887.1 kV=0.23094010767585033 Vminpu=0.7 Vmaxpu=1.3 model=1 kW=1.8504503505112815 kvar=0.3757499697445444 Phases=1
New Load.37 bus1=3110888.2 kV=0.23094010767585033 Vminpu=0.7 Vmaxpu=1.3 model=1 kW=1.7861811754071184 kvar=0.36269955712784074 Phases=1
New Load.38 bus1=3110889.1 kV=0.23094010767585033 Vminpu=0.7 Vmaxpu=1.3 model=1 kW=1.9597913050706237 kvar=0.39795259752980794 Phases=1
New Load.39 bus1=3108164.1 kV=0.23094010767585033 Vminpu=0.7 Vmaxpu=1.3 model=1 kW=1.4648354590858517 kvar=0.29744752637116967 Phases=1
New Load.40 bus1=3104844.2 kV=0.23094010767585033 Vminpu=0.7 Vmaxpu=1.3 model=1 kW=1.7603066324013759 kvar=0.35744550708057765 Phases=1
New Load.41 bus1=3110890.2 kV=0.23094010767585033 Vminpu=0.7 Vmaxpu=1.3 model=1 kW=1.275366746251063 kvar=0.25897426331088874 Phases=1
New Load.42 bus1=3110891.2 kV=0.23094010767585033 Vminpu=0.7 Vmaxpu=1.3 model=1 kW=1.1284659224125553 kvar=0.22914477877620956 Phases=1
New Load.43 bus1=3107308.2 kV=0.23094010767585033 Vminpu=0.7 Vmaxpu=1.3 model=1 kW=0.7737336733097577 kvar=0.15711332338970754 Phases=1
New Load.44 bus1=3106350.2 kV=0.23094010767585033 Vminpu=0.7 Vmaxpu=1.3 model=1 kW=0.5951155239291367 kvar=0.12084336121155416 Phases=1
New Load.45 bus1=3107530.1 kV=0.23094010767585033 Vminpu=0.7 Vmaxpu=1.3 model=1 kW=1.5065686648626513 kvar=0.30592181524016987 Phases=1
New Load.46 bus1=3107170.1 kV=0.23094010767585033 Vminpu=0.7 Vmaxpu=1.3 model=1 kW=1.8629702804044121 kvar=0.37829224993987515 Phases=1
New Load.47 bus1=3104864.1 kV=0.23094010767585033 Vminpu=0.7 Vmaxpu=1.3 model=1 kW=2.3103502972755594 kvar=0.4691366369601485 Phases=1
New Load.48 bus1=3104806.2 kV=0.23094010767585033 Vminpu=0.7 Vmaxpu=1.3 model=1 kW=2.04158835018526 kvar=0.41456219595460514 Phases=1
New Load.49 bus1=3108667.2 kV=0.23094010767585033 Vminpu=0.7 Vmaxpu=1.3 model=1 kW=1.3822037307517334 kvar=0.2806684382897707 Phases=1
New Load.50 bus1=3110897.1 kV=0.23094010767585033 Vminpu=0.7 Vmaxpu=1.3 model=1 kW=1.5057341408427158 kvar=0.30575235791041483 Phases=1
New Load.51 bus1=3108663.1 kV=0.23094010767585033 Vminpu=0.7 Vmaxpu=1.3 model=1 kW=1.5432939305221083 kvar=0.3133791984964072 Phases=1
New Load.52 bus1=3108666.1 kV=0.23094010767585033 Vminpu=0.7 Vmaxpu=1.3 model=1 kW=2.148032650276456 kvar=0.43617663296324743 Phases=1
New Load.53 bus1=3104848.1 kV=0.23094010767585033 Vminpu=0.7 Vmaxpu=1.3 model=1 kW=1.6309337581731151 kvar=0.33117522451741566 Phases=1
New Load.54 bus1=3110915.2 kV=0.23094010767585033 Vminpu=0.7 Vmaxpu=1.3 model=1 kW=0.866381361478335 kvar=0.17592623886005573 Phases=1
New Load.55 bus1=3110916.2 kV=0.23094010767585033 Vminpu=0.7 Vmaxpu=1.3 model=1 kW=2.8428660921392694 kvar=0.5772685810316256 Phases=1
New Load.56 bus1=3104863.1 kV=0.23094010767585033 Vminpu=0.7 Vmaxpu=1.3 model=1 kW=1.4089129569769585 kvar=0.2860919779936355 Phases=1
New Load.57 bus1=3106159.2 kV=0.23094010767585033 Vminpu=0.7 Vmaxpu=1.3 model=1 kW=1.6050590559678262 kvar=0.325921142143306 Phases=1
New Load.58 bus1=3106349.1 kV=0.23094010767585033 Vminpu=0.7 Vmaxpu=1.3 model=1 kW=1.520757961194745 kvar=0.3088030747487039 Phases=1
New Load.59 bus1=3107154.1 kV=0.23094010767585033 Vminpu=0.7 Vmaxpu=1.3 model=1 kW=1.4414649657385534 kvar=0.2927019452937114 Phases=1
New Load.60 bus1=3108168.1.2 kV=0.4 Vminpu=0.7 Vmaxpu=1.3 model=1 kW=1.0383221247028769 kvar=0.21084029994881964 Phases=2
New Load.61 bus1=3108134.2 kV=0.23094010767585033 Vminpu=0.7 Vmaxpu=1.3 model=1 kW=2.6767677930520066 kvar=0.5435408828853798 Phases=1
New Load.62 bus1=3108304.1 kV=0.23094010767585033 Vminpu=0.7 Vmaxpu=1.3 model=1 kW=2.543221502726338 kvar=0.5164231520392095 Phases=1
New Load.63 bus1=3108328.1 kV=0.23094010767585033 Vminpu=0.7 Vmaxpu=1.3 model=1 kW=2.4155179949370407 kvar=0.49049184878925084 Phases=1
New Load.64 bus1=3104858.2 kV=0.23094010767585033 Vminpu=0.7 Vmaxpu=1.3 model=1 kW=1.903034119742249 kvar=0.38642755949567215 Phases=1
New Load.65 bus1=3104857.1 kV=0.23094010767585033 Vminpu=0.7 Vmaxpu=1.3 model=1 kW=4.006387754572773 kvar=0.8135317314240227 Phases=1
New Load.66 bus1=3104799.1 kV=0.23094010767585033 Vminpu=0.7 Vmaxpu=1.3 model=1 kW=1.159348485135414 kvar=0.2354157505996589 Phases=1
New Load.67 bus1=3110917.3 kV=0.23094010767585033 Vminpu=0.7 Vmaxpu=1.3 model=1 kW=1.1618524551940859 kvar=0.23592420340604042 Phases=1
New Load.68 bus1=3110918.1 kV=0.23094010767585033 Vminpu=0.7 Vmaxpu=1.3 model=1 kW=1.0391568079223585 kvar=0.21100978960542122 Phases=1
New Load.69 bus1=3110919.1 kV=0.23094010767585033 Vminpu=0.7 Vmaxpu=1.3 model=1 kW=2.9522068874990666 kvar=0.5994711764900427 Phases=1
New Load.70 bus1=3110920.1 kV=0.23094010767585033 Vminpu=0.7 Vmaxpu=1.3 model=1 kW=1.3429745746333785 kvar=0.2727026183905753 Phases=1
New Load.71 bus1=3110921.3 kV=0.23094010767585033 Vminpu=0.7 Vmaxpu=1.3 model=1 kW=0.3513935958246445 kvar=0.07135351292351892 Phases=1
New Load.72 bus1=3110922.3 kV=0.23094010767585033 Vminpu=0.7 Vmaxpu=1.3 model=1 kW=1.1059299530851925 kvar=0.2245686550285063 Phases=1
New Load.73 bus1=3110923.1 kV=0.23094010767585033 Vminpu=0.7 Vmaxpu=1.3 model=1 kW=2.115873564723655 kvar=0.4296464521236813 Phases=1
New Load.74 bus1=3110924.3 kV=0.23094010767585033 Vminpu=0.7 Vmaxpu=1.3 model=1 kW=1.2274472287294034 kvar=0.24924379026471283 Phases=1
New Load.75 bus1=3110925.1 kV=0.23094010767585033 Vminpu=0.7 Vmaxpu=1.3 model=1 kW=1.0358181546442053 kvar=0.21033184714243816 Phases=1
New Load.76 bus1=3104842.2 kV=0.23094010767585033 Vminpu=0.7 Vmaxpu=1.3 model=1 kW=1.9230661986107132 kvar=0.3904952466004173 Phases=1
New Load.77 bus1=3111009.1 kV=0.23094010767585033 Vminpu=0.7 Vmaxpu=1.3 model=1 kW=1.8411708430941052 kvar=0.3738656853970692 Phases=1
New Load.78 bus1=3106246.1 kV=0.23094010767585033 Vminpu=0.7 Vmaxpu=1.3 model=1 kW=4.204203060803057 kvar=0.8536998425600497 Phases=1
New Load.79 bus1=3111014.2 kV=0.23094010767585033 Vminpu=0.7 Vmaxpu=1.3 model=1 kW=4.199195279885261 kvar=0.8526829692741333 Phases=1
New Load.80 bus1=3111015.3 kV=0.23094010767585033 Vminpu=0.7 Vmaxpu=1.3 model=1 kW=3.230150190804117 kvar=0.655909971391357 Phases=1
New Load.81 bus1=3111018.1 kV=0.23094010767585033 Vminpu=0.7 Vmaxpu=1.3 model=1 kW=2.4230299847128283 kvar=0.4920172233718185 Phases=1
New Load.82 bus1=3111019.3 kV=0.23094010767585033 Vminpu=0.7 Vmaxpu=1.3 model=1 kW=1.3246119418036504 kvar=0.26897392676245674 Phases=1
New Load.83 bus1=3111020.3 kV=0.23094010767585033 Vminpu=0.7 Vmaxpu=1.3 model=1 kW=2.1375748508315366 kvar=0.4340530862147831 Phases=1
New Load.84 bus1=3111022.3 kV=0.23094010767585033 Vminpu=0.7 Vmaxpu=1.3 model=1 kW=0.9782263656961219 kvar=0.1986373356151241 Phases=1
New Load.85 bus1=3111024.2 kV=0.23094010767585033 Vminpu=0.7 Vmaxpu=1.3 model=1 kW=1.4514808459732393 kvar=0.29473575651923734 Phases=1
New Load.86 bus1=3111025.3 kV=0.23094010767585033 Vminpu=0.7 Vmaxpu=1.3 model=1 kW=3.694223235266711 kvar=0.750144022236276 Phases=1
New Load.87 bus1=3111026.2 kV=0.23094010767585033 Vminpu=0.7 Vmaxpu=1.3 model=1 kW=0.9949196320868869 kvar=0.20202704793003948 Phases=1
New Load.88 bus1=3111027.2 kV=0.23094010767585033 Vminpu=0.7 Vmaxpu=1.3 model=1 kW=2.148032650276456 kvar=0.43617663296324743 Phases=1
New Load.89 bus1=3111028.3 kV=0.23094010767585033 Vminpu=0.7 Vmaxpu=1.3 model=1 kW=1.6442883712857275 kvar=0.333886994369348 Phases=1
New Load.90 bus1=3111030.3 kV=0.23094010767585033 Vminpu=0.7 Vmaxpu=1.3 model=1 kW=3.230984714824052 kvar=0.656079428721112 Phases=1
New Load.91 bus1=3111031.3 kV=0.23094010767585033 Vminpu=0.7 Vmaxpu=1.3 model=1 kW=2.984758737061115 kvar=0.6060811114632719 Phases=1
New Load.92 bus1=3111032.3 kV=0.23094010767585033 Vminpu=0.7 Vmaxpu=1.3 model=1 kW=1.2361375901327079 kvar=0.25100844341169326 Phases=1
New Load.93 bus1=3111033.3 kV=0.23094010767585033 Vminpu=0.7 Vmaxpu=1.3 model=1 kW=0.9598637328663935 kvar=0.19490864398700544 Phases=1
New Load.94 bus1=3111034.3 kV=0.23094010767585033 Vminpu=0.7 Vmaxpu=1.3 model=1 kW=3.014806696164266 kvar=0.612182609793543 Phases=1
New Load.95 bus1=3111035.3 kV=0.23094010767585033 Vminpu=0.7 Vmaxpu=1.3 model=1 kW=2.4864644765975092 kvar=0.5048981463319204 Phases=1
New Load.96 bus1=3111037.3 kV=0.23094010767585033 Vminpu=0.7 Vmaxpu=1.3 model=1 kW=1.4957181014084835 kvar=0.3037185143580423 Phases=1
New Load.97 bus1=3111038.3 kV=0.23094010767585033 Vminpu=0.7 Vmaxpu=1.3 model=1 kW=1.1818843748630043 kvar=0.23999185818393898 Phases=1
New Load.98 bus1=3111039.3 kV=0.23094010767585033 Vminpu=0.7 Vmaxpu=1.3 model=1 kW=0.9223038635872283 kvar=0.18728178723758987 Phases=1
New Load.99 bus1=3111040.3 kV=0.23094010767585033 Vminpu=0.7 Vmaxpu=1.3 model=1 kW=1.510742080960059 kvar=0.30676926352317785 Phases=1
New Load.100 bus1=3111043.1 kV=0.23094010767585033 Vminpu=0.7 Vmaxpu=1.3 model=1 kW=1.0475034809176276 kvar=0.21270465384459059 Phases=1
New Load.101 bus1=3111044.3 kV=0.23094010767585033 Vminpu=0.7 Vmaxpu=1.3 model=1 kW=2.284475754269817 kvar=0.4638825869128854 Phases=1
New Load.102 bus1=3106483.2 kV=0.23094010767585033 Vminpu=0.7 Vmaxpu=1.3 model=1 kW=2.1317322274947115 kvar=0.4328666909454184 Phases=1
New Load.103 bus1=3111051.1 kV=0.23094010767585033 Vminpu=0.7 Vmaxpu=1.3 model=1 kW=1.8145597680713064 kvar=0.3684620761449087 Phases=1
New Load.104 bus1=3111052.3 kV=0.23094010767585033 Vminpu=0.7 Vmaxpu=1.3 model=1 kW=2.2427425484930175 kvar=0.4554082980438852 Phases=1
New Load.105 bus1=3111053.1 kV=0.23094010767585033 Vminpu=0.7 Vmaxpu=1.3 model=1 kW=0.792096226539713 kvar=0.16084199885440287 Phases=1
New Load.106 bus1=3111055.1 kV=0.23094010767585033 Vminpu=0.7 Vmaxpu=1.3 model=1 kW=1.9038688029617301 kvar=0.3865970491522737 Phases=1
New Load.107 bus1=3111061.3 kV=0.23094010767585033 Vminpu=0.7 Vmaxpu=1.3 model=1 kW=1.2695241229142387 kvar=0.2577878680415242 Phases=1
New Load.108 bus1=3111062.3 kV=0.23094010767585033 Vminpu=0.7 Vmaxpu=1.3 model=1 kW=1.9990206203885248 kvar=0.4059184497558499 Phases=1
New Load.109 bus1=3111063.3 kV=0.23094010767585033 Vminpu=0.7 Vmaxpu=1.3 model=1 kW=2.299499574621846 kvar=0.46693330375117437 Phases=1
New Load.110 bus1=3111065.3 kV=0.23094010767585033 Vminpu=0.7 Vmaxpu=1.3 model=1 kW=1.9372553357432607 kvar=0.3933764737821046 Phases=1
New Load.111 bus1=3111066.1 kV=0.23094010767585033 Vminpu=0.7 Vmaxpu=1.3 model=1 kW=2.040753826165325 kvar=0.41439273862485027 Phases=1
New Load.112 bus1=3111067.1 kV=0.23094010767585033 Vminpu=0.7 Vmaxpu=1.3 model=1 kW=2.315358237392903 kvar=0.47015354257291153 Phases=1
New Load.113 bus1=3111073.3 kV=0.23094010767585033 Vminpu=0.7 Vmaxpu=1.3 model=1 kW=2.144252157387842 kvar=0.43540897114074917 Phases=1
New Load.114 bus1=3111074.1 kV=0.23094010767585033 Vminpu=0.7 Vmaxpu=1.3 model=1 kW=2.6375386369336513 kvar=0.5355750629861842 Phases=1
New Load.115 bus1=3111079.2 kV=0.23094010767585033 Vminpu=0.7 Vmaxpu=1.3 model=1 kW=1.6292643917341523 kvar=0.33083624520421245 Phases=1
New Load.116 bus1=3111100.2 kV=0.23094010767585033 Vminpu=0.7 Vmaxpu=1.3 model=1 kW=1.4439688561974517 kvar=0.29321038193666954 Phases=1
New Load.117 bus1=3111101.2 kV=0.23094010767585033 Vminpu=0.7 Vmaxpu=1.3 model=1 kW=1.9890045809542929 kvar=0.40388460620347744 Phases=1
New Load.118 bus1=3111102.1 kV=0.23094010767585033 Vminpu=0.7 Vmaxpu=1.3 model=1 kW=1.4823634882958716 kvar=0.30100674450611004 Phases=1
New Load.119 bus1=3111104.1 kV=0.23094010767585033 Vminpu=0.7 Vmaxpu=1.3 model=1 kW=2.0541084392779365 kvar=0.41710450847678254 Phases=1
New Load.120 bus1=3111105.2 kV=0.23094010767585033 Vminpu=0.7 Vmaxpu=1.3 model=1 kW=2.58578939172262 kvar=0.5250669305648116 Phases=1
New Load.121 bus1=3111113.1 kV=0.23094010767585033 Vminpu=0.7 Vmaxpu=1.3 model=1 kW=0.8964292409817123 kvar=0.18202772102690346 Phases=1
New Load.122 bus1=3111121.2 kV=0.23094010767585033 Vminpu=0.7 Vmaxpu=1.3 model=1 kW=2.861228486169679 kvar=0.5809972241694743 Phases=1
New Load.123 bus1=3108135.2 kV=0.23094010767585033 Vminpu=0.7 Vmaxpu=1.3 model=1 kW=4.396175743696519 kvar=0.8926815584267123 Phases=1
New Load.124 bus1=3111130.1 kV=0.23094010767585033 Vminpu=0.7 Vmaxpu=1.3 model=1 kW=1.9773193342806437 kvar=0.40151181566474825 Phases=1
New Load.125 bus1=3108668.1 kV=0.23094010767585033 Vminpu=0.7 Vmaxpu=1.3 model=1 kW=1.1852230281411573 kvar=0.24066980064692206 Phases=1
New Load.126 bus1=3111152.3 kV=0.23094010767585033 Vminpu=0.7 Vmaxpu=1.3 model=1 kW=1.6952027740777318 kvar=0.34422560480727254 Phases=1
New Load.127 bus1=3111160.2 kV=0.23094010767585033 Vminpu=0.7 Vmaxpu=1.3 model=1 kW=1.7310933565177067 kvar=0.35151349840690826 Phases=1
New Load.128 bus1=3111163.2 kV=0.23094010767585033 Vminpu=0.7 Vmaxpu=1.3 model=1 kW=1.7436132864108376 kvar=0.354055778602239 Phases=1
New Load.129 bus1=3110523.1.3 kV=0.4 Vminpu=0.7 Vmaxpu=1.3 model=1 kW=1.782007918509257 kvar=0.36185214117167935 Phases=2
New Load.130 bus1=3111166.3 kV=0.23094010767585033 Vminpu=0.7 Vmaxpu=1.3 model=1 kW=3.0765719808095295 kvar=0.6247245857672883 Phases=1
New Load.131 bus1=3111184.2 kV=0.23094010767585033 Vminpu=0.7 Vmaxpu=1.3 model=1 kW=2.762738095064505 kvar=0.5609978972663384 Phases=1
New Load.132 bus1=3108382.2 kV=0.23094010767585033 Vminpu=0.7 Vmaxpu=1.3 model=1 kW=3.182574361690492 kvar=0.6462492872529921 Phases=1
New Load.133 bus1=3111302.1 kV=0.23094010767585033 Vminpu=0.7 Vmaxpu=1.3 model=1 kW=0.663557955931161 kvar=0.1347411897844191 Phases=1
New Load.134 bus1=3111332.3 kV=0.23094010767585033 Vminpu=0.7 Vmaxpu=1.3 model=1 kW=1.3296199615207664 kvar=0.26999084853864297 Phases=1
New Load.135 bus1=3110100.1.3 kV=0.4 Vminpu=0.7 Vmaxpu=1.3 model=1 kW=2.148032650276456 kvar=0.43617663296324743 Phases=2
New Load.136 bus1=3111338.3 kV=0.23094010767585033 Vminpu=0.7 Vmaxpu=1.3 model=1 kW=2.148032650276456 kvar=0.43617663296324743 Phases=1
New Load.137 bus1=3111340.2 kV=0.23094010767585033 Vminpu=0.7 Vmaxpu=1.3 model=1 kW=1.8411708430941052 kvar=0.3738656853970692 Phases=1
New Load.138 bus1=3111341.3 kV=0.23094010767585033 Vminpu=0.7 Vmaxpu=1.3 model=1 kW=2.148032650276456 kvar=0.43617663296324743 Phases=1
New Load.139 bus1=3111344.3 kV=0.23094010767585033 Vminpu=0.7 Vmaxpu=1.3 model=1 kW=1.8411708430941052 kvar=0.3738656853970692 Phases=1
New Load.140 bus1=3111345.2 kV=0.23094010767585033 Vminpu=0.7 Vmaxpu=1.3 model=1 kW=2.148032650276456 kvar=0.43617663296324743 Phases=1
New Load.141 bus1=3111348.3 kV=0.23094010767585033 Vminpu=0.7 Vmaxpu=1.3 model=1 kW=1.8411708430941052 kvar=0.3738656853970692 Phases=1
New Load.142 bus1=3111350.1 kV=0.23094010767585033 Vminpu=0.7 Vmaxpu=1.3 model=1 kW=2.148032650276456 kvar=0.43617663296324743 Phases=1
New Load.143 bus1=3111352.2 kV=0.23094010767585033 Vminpu=0.7 Vmaxpu=1.3 model=1 kW=2.148032650276456 kvar=0.43617663296324743 Phases=1
New Load.144 bus1=3111353.2 kV=0.23094010767585033 Vminpu=0.7 Vmaxpu=1.3 model=1 kW=2.148032650276456 kvar=0.43617663296324743 Phases=1
